/*---------------------------------------------------------------------------*\
  =========                 |
  \\      /  F ield         | OpenFOAM: The Open Source CFD Toolbox
   \\    /   O peration     | Website:  https://openfoam.org
    \\  /    A nd           | Version:  12
     \\/     M anipulation  |
\*---------------------------------------------------------------------------*/
Build  : 12-6aa359dae696
Exec   : gmshToFoam cylinder
Date   : Mar 09 2025
Time   : 14:21:14
Host   : "LAPTOP-IGFI45KR"
PID    : 1163
I/O    : uncollated
Case   : /home/nirav/run/company/GMSH/2_refine
nProcs : 1
sigFpe : Enabling floating point exception trapping (FOAM_SIGFPE).
fileModificationChecking : Monitoring run-time modified files using timeStampMaster (fileModificationSkew 10)
allowSystemOperations : Allowing user-supplied system call operations

// * * * * * * * * * * * * * * * * * * * * * * * * * * * * * * * * * * * * * //
Create time

Starting to read mesh format at line 2
Read format version 2.2  ascii 0

Starting to read physical names at line 5
Physical names:14
    Surface 46	cylinder
    Surface 47	inlet
    Surface 48	outlet
    Surface 49	front
    Surface 50	back
    Surface 51	upper_wall
    Surface 52	lower_wall
    Surface 53	internal_3.1
    Surface 54	internal_1.1
    Surface 55	internal_2.1
    Surface 56	internal_2.2
    Volume 43	fluid_1
    Volume 44	fluid_2
    Volume 45	fluid_3

Starting to read points at line 22
Vertices to be read:10261
Vertices read:10261

Starting to read cells at line 10286
Cells to be read:55368

Mapping region 53 to Foam patch 0
Mapping region 52 to Foam patch 1
Mapping region 48 to Foam patch 2
Mapping region 49 to Foam patch 3
Mapping region 51 to Foam patch 4
Mapping region 50 to Foam patch 5
Mapping region 54 to Foam patch 6
Mapping region 47 to Foam patch 7
Mapping region 46 to Foam patch 8
Mapping region 56 to Foam patch 9
Mapping region 55 to Foam patch 10
Mapping region 45 to Foam cellZone 0
Mapping region 43 to Foam cellZone 1
Mapping region 44 to Foam cellZone 2
Cells:
    total:44296
    hex  :0
    prism:0
    pyr  :0
    tet  :44296

CellZones:
Zone	Size
    0	16920
    1	13168
    2	14208

Skipping tag  at line 65657
Patch 0 gets name internal_3.1
Patch 1 gets name lower_wall
Patch 2 gets name outlet
Patch 3 gets name front
Patch 4 gets name upper_wall
Patch 5 gets name back
Patch 6 gets name internal_1.1
Patch 7 gets name inlet
Patch 8 gets name cylinder
Patch 9 gets name internal_2.2
Patch 10 gets name internal_2.1

Finding faces of patch 0
Finding faces of patch 1
Finding faces of patch 2
Finding faces of patch 3
Finding faces of patch 4
Finding faces of patch 5
Finding faces of patch 6
Finding faces of patch 7
Finding faces of patch 8
Finding faces of patch 9
Finding faces of patch 10

FaceZones:
Zone	Size

Writing zone 0 to cellZone fluid_3 and cellSet
Writing zone 1 to cellZone fluid_1 and cellSet
Writing zone 2 to cellZone fluid_2 and cellSet
End

